 %mem=750MW
 %nproc=8
 # pw91pw91/6-311++G(3df,3pd)/auto opt freq

 Title Card Required

 0 1 
8 	 -0.416572 	 0.582430 	 2.915634
8 	 -4.362252 	 -1.376924 	 -1.553044
8 	 -4.876028 	 -3.257195 	 0.160646
8 	 -3.297781 	 -3.659131 	 1.693627
8 	 -1.676599 	 0.718756 	 -0.457658
8 	 -3.431104 	 0.991471 	 -1.864460
8 	 1.368131 	 0.078778 	 0.893326
8 	 3.101598 	 0.560888 	 2.262845
8 	 -0.036463 	 4.393483 	 4.231151
8 	 0.184235 	 2.476518 	 5.406963
7 	 -1.937086 	 -1.301537 	 1.274227
6 	 -3.257285 	 -1.501422 	 0.605089
6 	 -1.978402 	 -1.194468 	 2.768841
6 	 -3.120111 	 -1.149530 	 -0.902120
6 	 -0.629689 	 -0.769710 	 3.305006
6 	 0.919296 	 1.021367 	 3.085710
6 	 -3.795606 	 -2.926116 	 0.869415
6 	 0.905835 	 2.545744 	 3.087816
6 	 -2.682999 	 0.319413 	 -1.075739
6 	 1.810497 	 0.496280 	 1.950839
6 	 0.313410 	 3.090818 	 4.370368
1 	 0.160972 	 -1.429394 	 2.909861
1 	 -0.635761 	 -0.858139 	 4.404314
1 	 1.325012 	 0.670747 	 4.048681
1 	 -4.586576 	 -0.507839 	 -1.960003
1 	 -2.340371 	 -1.786620 	 -1.351868
1 	 -1.279948 	 -2.076296 	 0.988279
1 	 -3.968212 	 -0.792385 	 1.055799
1 	 -2.736078 	 -0.445290 	 3.028559
1 	 -2.274173 	 -2.169874 	 3.163009
1 	 -5.018366 	 -2.573283 	 -0.551152
1 	 -1.550353 	 -0.411444 	 0.839976
1 	 1.930368 	 2.934211 	 3.003048
1 	 0.345685 	 2.925895 	 2.224241
1 	 0.696587 	 -0.344530 	 -1.970804
1 	 -0.373355 	 4.682902 	 5.101366
16 	 -1.227214 	 3.465335 	 -2.675899
8 	 -2.718233 	 3.279361 	 -2.359081
8 	 -0.730544 	 2.304640 	 -3.422380
8 	 -1.273323 	 4.720000 	 -3.683559
1 	 -1.777657 	 4.458838 	 -4.476511
8 	 -0.451079 	 3.922406 	 -1.555510
7 	 0.907205 	 0.665420 	 -1.849343
1 	 1.930406 	 0.800819 	 -1.925068
1 	 0.615495 	 0.896131 	 -0.890856
1 	 0.368691 	 1.259091 	 -2.518207
16 	 0.751049 	 -3.071805 	 -0.752050
8 	 0.350031 	 -2.119593 	 -1.780660
8 	 -0.151197 	 -3.211474 	 0.395111
8 	 0.697396 	 -4.482135 	 -1.542153
1 	 0.818334 	 -5.197617 	 -0.890492
8 	 2.162002 	 -2.917907 	 -0.285841
1 	 3.648079 	 0.203452 	 1.502668
1 	 -3.003598 	 2.219895 	 -2.114116
16 	 4.447189 	 -0.477848 	 -1.118042
8 	 4.656831 	 -0.502686 	 0.325165
8 	 3.767017 	 0.666294 	 -1.684716
8 	 5.881065 	 -0.461478 	 -1.829903
1 	 6.432846 	 -1.163505 	 -1.436113
8 	 3.873275 	 -1.807412 	 -1.617227
1 	 3.071858 	 -2.280822 	 -1.000491