 %mem=750MW
 %nproc=8
 # pw91pw91/6-311++G(3df,3pd)/auto opt freq

 Title Card Required

 0 1 
8 	 -1.016159 	 -2.251202 	 -0.777403
8 	 2.760330 	 2.448696 	 -2.063321
8 	 4.360549 	 0.584490 	 -2.900997
8 	 3.941637 	 -1.483967 	 -2.158206
8 	 -0.245792 	 1.096892 	 -0.682780
8 	 0.322500 	 3.096743 	 -1.591798
8 	 -1.659842 	 -0.998968 	 2.004508
8 	 -0.162994 	 -2.703405 	 2.006633
8 	 -5.016818 	 -2.627968 	 -1.506360
8 	 -3.353138 	 -4.154656 	 -1.566349
7 	 1.416465 	 -0.927143 	 -1.255660
6 	 2.128682 	 0.106146 	 -2.065961
6 	 1.016781 	 -2.175985 	 -1.982255
6 	 2.030366 	 1.473059 	 -1.335288
6 	 0.140522 	 -3.029848 	 -1.089117
6 	 -1.817030 	 -2.737269 	 0.318856
6 	 3.575726 	 -0.348296 	 -2.361540
6 	 -3.253307 	 -2.343665 	 0.048735
6 	 0.565879 	 1.933063 	 -1.192716
6 	 -1.233721 	 -2.061550 	 1.563222
6 	 -3.839363 	 -3.151617 	 -1.086638
1 	 0.682609 	 -3.315245 	 -0.175416
1 	 -0.149130 	 -3.945324 	 -1.629477
1 	 -1.722296 	 -3.829162 	 0.393804
1 	 2.099377 	 3.161610 	 -2.237492
1 	 2.442228 	 1.370858 	 -0.317358
1 	 1.991195 	 -1.150790 	 -0.395985
1 	 1.607075 	 0.191279 	 -3.031340
1 	 0.464410 	 -1.867143 	 -2.878148
1 	 1.926520 	 -2.707311 	 -2.272764
1 	 3.901891 	 1.468378 	 -2.840451
1 	 0.548909 	 -0.433090 	 -0.906208
1 	 -3.869098 	 -2.512386 	 0.943723
1 	 -3.329976 	 -1.271489 	 -0.168361
1 	 0.520221 	 1.330878 	 2.537588
1 	 -5.343038 	 -3.214544 	 -2.216341
16 	 -2.608085 	 3.345689 	 0.205123
8 	 -1.630112 	 3.404312 	 1.298339
8 	 -2.014881 	 4.133356 	 -1.018496
8 	 -2.686428 	 1.850984 	 -0.294426
1 	 -1.727727 	 1.515739 	 -0.470000
8 	 -3.938101 	 3.814697 	 0.436952
7 	 -0.494642 	 1.413745 	 2.791489
1 	 -0.576039 	 1.640446 	 3.783691
1 	 -0.942988 	 0.486318 	 2.608254
1 	 -0.962797 	 2.161076 	 2.213905
16 	 2.454451 	 -0.479613 	 2.337555
8 	 2.157324 	 0.935250 	 2.035778
8 	 2.757244 	 -1.267317 	 1.129434
8 	 3.794480 	 -0.506987 	 3.240718
1 	 4.546070 	 -0.250550 	 2.674981
8 	 1.466977 	 -1.087695 	 3.244044
1 	 0.404730 	 -2.108965 	 2.605154
1 	 -1.088198 	 3.765716 	 -1.249389