 %mem=750MW
 %nproc=8
 # pw91pw91/6-311++G(3df,3pd)/auto opt freq

 Title Card Required

 0 1 
8 	 0.159829 	 -1.179623 	 2.848152
8 	 4.580399 	 1.160378 	 -0.807974
8 	 4.780014 	 2.962890 	 1.057134
8 	 2.951107 	 3.227687 	 2.316745
8 	 1.849800 	 -1.066137 	 -0.215315
8 	 3.717311 	 -1.159620 	 -1.500118
8 	 -1.721296 	 -1.397173 	 0.453553
8 	 -2.592137 	 0.053169 	 1.956866
8 	 -2.351785 	 -5.183104 	 2.481621
8 	 -3.493187 	 -3.235486 	 2.608146
7 	 1.845222 	 0.804675 	 1.688259
6 	 3.216191 	 1.110085 	 1.185457
6 	 1.713285 	 0.573496 	 3.160981
6 	 3.272923 	 0.860986 	 -0.346283
6 	 0.309325 	 0.095331 	 3.474572
6 	 -1.183121 	 -1.685069 	 2.792214
6 	 3.624338 	 2.547554 	 1.572668
6 	 -1.077215 	 -3.187510 	 2.590836
6 	 2.918360 	 -0.593608 	 -0.717971
6 	 -1.888185 	 -1.013398 	 1.603040
6 	 -2.438047 	 -3.834966 	 2.563950
1 	 -0.436502 	 0.816463 	 3.106482
1 	 0.193222 	 0.007133 	 4.567660
1 	 -1.724433 	 -1.445557 	 3.718956
1 	 4.852364 	 0.349897 	 -1.302248
1 	 2.537282 	 1.514108 	 -0.845884
1 	 1.165883 	 1.573081 	 1.401244
1 	 3.917919 	 0.415115 	 1.670623
1 	 2.448418 	 -0.187635 	 3.449594
1 	 1.932950 	 1.514879 	 3.671849
1 	 5.066346 	 2.325989 	 0.345440
1 	 1.555227 	 -0.061787 	 1.153314
1 	 -0.566878 	 -3.403191 	 1.641814
1 	 -0.471157 	 -3.632690 	 3.389347
1 	 -1.316352 	 -0.829811 	 -1.150634
1 	 -3.268896 	 -5.518007 	 2.443600
16 	 1.352112 	 -3.458556 	 -2.553952
8 	 0.803197 	 -2.240469 	 -3.156506
8 	 2.920909 	 -3.388737 	 -2.651734
8 	 1.060589 	 -3.407622 	 -1.001175
1 	 1.368432 	 -2.494571 	 -0.645288
8 	 0.933390 	 -4.733615 	 -3.045603
7 	 -0.999549 	 -0.447303 	 -2.067536
1 	 -0.506992 	 0.449507 	 -1.886125
1 	 -1.837484 	 -0.238429 	 -2.623624
1 	 -0.361794 	 -1.136575 	 -2.535008
16 	 -0.123335 	 3.081414 	 -0.409983
8 	 0.134359 	 2.096237 	 -1.458851
8 	 -0.100838 	 2.545437 	 0.963687
8 	 1.167088 	 4.054597 	 -0.528458
1 	 1.199003 	 4.619276 	 0.267489
8 	 -1.301415 	 3.941608 	 -0.647946
1 	 -2.966378 	 0.506618 	 1.151706
1 	 3.256561 	 -2.520323 	 -2.233564
16 	 -3.933641 	 1.838738 	 -1.455346
8 	 -3.662278 	 1.552778 	 -0.054597
8 	 -3.586811 	 0.851944 	 -2.446031
8 	 -5.502997 	 2.058808 	 -1.653201
1 	 -5.816552 	 2.712318 	 -0.999215
8 	 -3.392316 	 3.242817 	 -1.814003
1 	 -2.492642 	 3.485519 	 -1.306027