 %mem=750MW
 %nproc=8
 # pw91pw91/6-311++G(3df,3pd)/auto opt freq

 Title Card Required

 0 1 
8 	 -2.417271 	 2.813427 	 -0.322827
8 	 -5.261045 	 -1.378658 	 2.059670
8 	 -1.129133 	 0.095140 	 1.266024
8 	 -1.216291 	 -0.234586 	 3.503741
8 	 -2.246376 	 -2.747680 	 0.881361
8 	 -3.836786 	 -1.696377 	 -0.341239
8 	 0.473602 	 1.095979 	 -1.406926
8 	 -1.687822 	 0.837185 	 -1.987587
8 	 0.445025 	 4.824971 	 -3.559695
8 	 1.347172 	 4.331197 	 -1.556147
7 	 -3.872482 	 0.881616 	 1.296936
6 	 -3.288570 	 0.008385 	 2.294537
6 	 -3.834048 	 2.322183 	 1.526634
6 	 -3.864240 	 -1.440941 	 2.057813
6 	 -2.547263 	 3.019475 	 1.090028
6 	 -1.102021 	 2.847872 	 -0.842022
6 	 -1.767724 	 -0.047561 	 2.415652
6 	 -1.022923 	 3.935782 	 -1.930566
6 	 -3.317138 	 -1.993850 	 0.735950
6 	 -0.711791 	 1.482104 	 -1.439065
6 	 0.379499 	 4.356409 	 -2.297331
1 	 -1.671516 	 2.612664 	 1.616453
1 	 -2.613430 	 4.098758 	 1.313819
1 	 -0.373447 	 3.081965 	 -0.053500
1 	 -5.484239 	 -0.610401 	 1.494210
1 	 -3.541507 	 -2.091928 	 2.877767
1 	 -3.562894 	 0.656744 	 0.350410
1 	 -3.664015 	 0.304152 	 3.282747
1 	 -4.668202 	 2.777721 	 0.973967
1 	 -4.008556 	 2.522078 	 2.592658
1 	 -0.130523 	 -0.080567 	 1.386859
1 	 -1.817704 	 -2.946035 	 -0.027776
1 	 -1.579139 	 3.638470 	 -2.826136
1 	 -1.524175 	 4.830607 	 -1.532447
1 	 1.052462 	 -0.792358 	 -1.524765
1 	 1.364043 	 5.123128 	 -3.709758
7 	 1.353279 	 -1.677694 	 -1.076322
1 	 1.518003 	 -1.469526 	 -0.075195
1 	 2.233083 	 -2.009793 	 -1.494717
1 	 0.551218 	 -2.362389 	 -1.182619
7 	 2.599830 	 2.231037 	 -0.023790
1 	 2.688712 	 3.208827 	 -0.314737
1 	 2.421612 	 2.142326 	 1.009578
1 	 1.776614 	 1.829381 	 -0.545538
16 	 2.105808 	 0.130459 	 2.660561
8 	 2.074833 	 1.597612 	 2.624645
8 	 1.395826 	 -0.449235 	 1.472885
8 	 3.473450 	 -0.424716 	 2.786117
1 	 3.942302 	 -1.167698 	 1.734314
8 	 1.351825 	 -0.367605 	 3.935839
1 	 0.337435 	 -0.299927 	 3.780950
16 	 4.805110 	 -1.139480 	 -0.343471
8 	 4.292484 	 -1.838938 	 -1.505249
8 	 4.235286 	 -1.822038 	 0.912914
8 	 6.385218 	 -1.396541 	 -0.262382
8 	 4.686750 	 0.302329 	 -0.272365
1 	 3.447304 	 1.678716 	 -0.242456
1 	 6.561912 	 -2.325216 	 -0.505731
16 	 -1.459374 	 -2.706983 	 -2.739427
8 	 -0.966683 	 -3.095777 	 -1.358826
8 	 -1.114165 	 -3.644904 	 -3.770418
8 	 -3.034296 	 -2.674284 	 -2.638279
1 	 -3.336001 	 -2.273127 	 -1.754569
8 	 -0.983856 	 -1.314372 	 -3.024970
1 	 -1.393116 	 -0.101401 	 -2.404240