 %mem=750MW
 %nproc=8
 # pw91pw91/6-311++G(3df,3pd)/auto opt freq

 Required

 0 1 
8 	 -2.271712 	 -1.642226 	 -1.383578
8 	 1.358745 	 -1.708976 	 4.056886
8 	 -1.071957 	 -2.495585 	 3.980879
8 	 -2.208982 	 -2.085064 	 2.105821
8 	 2.749104 	 -1.213158 	 0.830409
8 	 3.593270 	 -1.944910 	 2.815491
8 	 -4.049551 	 1.035071 	 0.108940
8 	 -1.919151 	 0.396204 	 0.405423
8 	 -5.777196 	 -2.109268 	 -3.418559
8 	 -4.836691 	 -3.330046 	 -1.766584
7 	 -0.014471 	 -1.523193 	 0.566036
6 	 0.200153 	 -2.091021 	 1.939903
6 	 -0.210626 	 -2.523854 	 -0.550242
6 	 1.298598 	 -1.290039 	 2.704311
6 	 -1.671672 	 -2.818746 	 -0.848321
6 	 -3.427790 	 -1.116960 	 -0.750094
6 	 -1.154051 	 -2.199470 	 2.690080
6 	 -4.516136 	 -0.924415 	 -1.800223
6 	 2.699113 	 -1.517641 	 2.106399
6 	 -3.049198 	 0.181129 	 -0.024413
6 	 -5.031321 	 -2.255848 	 -2.295780
1 	 -2.211625 	 -3.171304 	 0.037161
1 	 -1.705004 	 -3.610327 	 -1.611817
1 	 -3.794801 	 -1.809061 	 0.024695
1 	 2.287873 	 -2.035330 	 4.166437
1 	 1.066827 	 -0.215083 	 2.647789
1 	 -0.836345 	 -0.830955 	 0.541481
1 	 0.562324 	 -3.123024 	 1.822274
1 	 0.249758 	 -2.075580 	 -1.437110
1 	 0.340233 	 -3.437401 	 -0.298901
1 	 -0.121093 	 -2.386065 	 4.276523
1 	 0.818068 	 -0.959861 	 0.309710
1 	 -5.362225 	 -0.362091 	 -1.384414
1 	 -4.137734 	 -0.338459 	 -2.646763
1 	 -3.715234 	 1.868032 	 0.554582
1 	 -6.095409 	 -3.001538 	 -3.657934
16 	 1.665211 	 1.796047 	 -0.568417
8 	 1.388167 	 0.492595 	 -1.212586
8 	 0.871539 	 2.913229 	 -1.139464
8 	 1.154266 	 1.606539 	 0.936517
1 	 0.503066 	 2.329251 	 1.180219
8 	 3.090672 	 2.112892 	 -0.497884
1 	 4.244691 	 1.419669 	 -1.382389
16 	 -1.784679 	 3.804077 	 0.718985
8 	 -0.646921 	 3.471632 	 1.568920
8 	 -3.109060 	 3.369444 	 1.098446
8 	 -1.913892 	 5.398434 	 0.693194
1 	 -1.018685 	 5.786811 	 0.656775
8 	 -1.510570 	 3.395933 	 -0.738339
1 	 -0.473145 	 3.142827 	 -0.915394
16 	 4.743715 	 -0.599728 	 -1.946315
8 	 3.270601 	 -0.865076 	 -2.454481
8 	 5.645326 	 -1.179408 	 -2.886832
8 	 4.904771 	 0.959344 	 -2.001785
8 	 4.842583 	 -1.036270 	 -0.544695
1 	 3.680180 	 -1.219877 	 0.369607
1 	 2.582318 	 -0.304067 	 -1.961673